  81
       -107.82424929
 C         -0.3709478483        1.8216292965       -0.5933805331
 C         -1.1575729504        3.0120222705       -0.2177783315
 C          2.7439343606       -0.7537229944        0.9624945046
 C          1.8879454775       -0.0215881251        1.7908525597
 C          1.0721228807       -0.7728296532        2.8381895743
 C         -0.2927724730       -1.3348387723        2.4015575868
 C         -1.4162796346       -0.2926762936        2.1600570851
 C         -1.6863377571       -0.0815942933        0.6508625871
 C         -0.5693388837        0.4658166968       -0.1790940349
 C         -2.6430598397       -0.8793060886       -2.7337008453
 C         -4.8727864157       -0.9176803705       -0.6093064929
 C         -3.1516723867       -3.5555586244       -1.0969655030
 C         -1.7596848831       -4.0746224567       -1.4616002946
 C         -4.1496944337       -4.0560786585       -2.1397799931
 C         -3.5400224474       -4.1239520969        0.2691025901
 C         -1.2636589810        1.0193401822        2.9322272488
 C         -2.5716958103        1.7979355853        3.0566009288
 C         -0.7692987791       -2.3587864921        3.4512737590
 C          0.0246668066       -3.6614874946        3.4669513958
 C          3.6651021485       -0.1007936805        0.1058277614
 C          5.4277473420       -0.5225572347       -1.5464298527
 C          5.9964611432       -1.8263109556       -2.1228481786
 C          4.7955174148        0.3017110818       -2.6708379614
 C          6.5469109282        0.2603267422       -0.8537202658
 C          0.6748515981        1.7923624061       -1.4750562408
 C          0.3804926372       -0.2503394985       -0.8449397483
 Si        -3.1582431444       -1.6354792568       -1.0564471718
 O         -2.0743037776       -1.3334516758        0.1266805767
 O          1.7910010060        1.2393548917        1.7881229729
 O          3.8164031237        1.1303537756       -0.0107797139
 O          4.4388706605       -0.9635778325       -0.5990063000
 O          1.1349223876        0.5436146048       -1.6197939931
 H          1.1353303255        2.5670007355       -2.0617806054
 H          0.5906918642       -1.2997374298       -0.8573702948
 H         -2.5380506102        0.6038629913        0.5604412199
 H         -5.6434125161       -1.2471398407       -1.2976365112
 H         -5.1767319046       -1.2080195041        0.3922230005
 H         -4.8563328199        0.1681646009       -0.6457777392
 H         -3.2970643682       -1.1945872581       -3.5395038824
 H         -2.6846754674        0.2050829527       -2.6923999497
 H         -1.6277382860       -1.1567206775       -3.0011013122
 H         -4.1508009403       -5.1455821197       -2.1760996490
 H         -3.8936999040       -3.6839713957       -3.1286832156
 H         -5.1564323227       -3.7233268821       -1.9005198763
 H         -4.5471901510       -3.8174351569        0.5408530164
 H         -3.5070716324       -5.2136947495        0.2536319373
 H         -2.8525401848       -3.7685727547        1.0314188465
 H         -1.4677286363       -3.7336426374       -2.4521867739
 H         -1.0254708790       -3.7179001827       -0.7443039787
 H         -1.7439876179       -5.1649571732       -1.4580403102
 H         -2.3475621730       -0.7554142479        2.5096615476
 H         -0.9374845215        0.7791219309        3.9451648532
 H         -0.4838213138        1.6262451200        2.4699718988
 H         -2.4057430948        2.7207734078        3.6085655421
 H         -2.9987716460        2.0494823913        2.0895375993
 H         -3.3074839551        1.2058951745        3.5969602581
 H         -0.1651179739       -1.8686784583        1.4564220402
 H         -0.7354224043       -1.9000936868        4.4423932052
 H         -1.8094719774       -2.6150943852        3.2392025614
 H          0.0070621185       -4.1272765152        2.4838675597
 H         -0.4170181301       -4.3546306676        4.1797566817
 H          1.0613994002       -3.5035376973        3.7528435213
 H          0.9326713452       -0.0856493094        3.6730565744
 H          1.6804746448       -1.6013278739        3.1941149904
 H          3.9598676824       -0.2443112707       -3.1020679683
 H          5.5354243586        0.4921729488       -3.4429105016
 H          4.4278213610        1.2469592841       -2.2835094601
 H          7.3273430807        0.4933176784       -1.5723353526
 H          6.9700254616       -0.3359225815       -0.0483862629
 H          6.1564996178        1.1844710346       -0.4368062947
 H          6.7806907243       -1.6051135358       -2.8402794189
 H          6.4052623107       -2.4373327225       -1.3225672856
 H          5.2087629260       -2.3886627832       -2.6169541515
 H         -0.6873668255        3.9319566321       -0.5629078974
 H         -1.3704613499        3.0539310221        0.8459155247
 C          2.7707535045       -2.2628595526        0.9986826819
 H          3.4386550072       -2.6257852715        1.7838077868
 H          1.7827119346       -2.6734247877        1.1750129546
 H          3.1389064602       -2.6469514338        0.0519529928
 Br        -2.9429385161        2.9959210478       -1.0857086605
 K          2.9198653016        2.8494765882        0.9148231881
