  81
       -107.80976026
 C         -0.6390783208        2.2063706636       -0.1533034395
 C         -1.4495280605        3.2195009243        0.5552562241
 C          2.7954805891       -1.5143617540        0.2897726123
 C          2.1917641815       -0.7772739229        1.3146759204
 C          1.3228204604       -1.5230724818        2.3225628906
 C         -0.1566795445       -1.7726607605        1.9777811379
 C         -1.1407575248       -0.5812180936        2.1518002147
 C         -1.6406450676       -0.0341820590        0.7883644692
 C         -0.6744522424        0.7783170128       -0.0180907888
 C         -2.8193165648       -0.1158189001       -2.6416294953
 C         -4.9139077539       -0.6496611540       -0.4356054579
 C         -3.1935899892       -3.0816919085       -1.5591463094
 C         -1.7927163462       -3.5075695478       -2.0021301930
 C         -4.1746218603       -3.3696225451       -2.6944808183
 C         -3.5917959402       -3.9166190323       -0.3405405744
 C         -0.6919898996        0.5351334443        3.0979080309
 C         -1.8719020613        1.2953467444        3.7020113621
 C         -0.6683443734       -2.9567282788        2.8253653431
 C         -0.1105133997       -4.3178779689        2.4219398808
 C          3.8488198531       -1.0354304144       -0.5402636848
 C          5.6913645636        0.5728803832       -0.7029229931
 C          6.1350012637        1.7666362781        0.1461020445
 C          6.7798735034       -0.5061088325       -0.6487792193
 C          5.4548098674        1.0229895167       -2.1466757401
 C          0.2856029734        2.4627428334       -1.1230826834
 C          0.2333919889        0.3140668389       -0.9190035022
 Si        -3.2246117698       -1.2107428959       -1.1289341308
 O         -2.0661218020       -1.1352043137        0.0217642283
 O          2.3473256262        0.4652327684        1.4900992677
 O          4.2292077567       -1.5848912349       -1.5783349867
 O          4.4773540466        0.1088918016       -0.0812865840
 O          0.8314658628        1.3214199778       -1.5813071153
 H          0.5877039628        3.3916330587       -1.5762597493
 H          0.5086030469       -0.6911164119       -1.1706496594
 H         -2.5142060886        0.5980488009        0.9920437436
 H         -5.7288033424       -0.8999240363       -1.1061588384
 H         -5.1209127303       -1.1142909790        0.5241686403
 H         -4.9388104756        0.4267927085       -0.2920110392
 H         -3.5506930122       -0.2406994937       -3.4329007417
 H         -2.8202194140        0.9353191036       -2.3677001661
 H         -1.8413874106       -0.3473900392       -3.0548163485
 H         -4.1769946771       -4.4324247919       -2.9366346725
 H         -3.9004797408       -2.8183967034       -3.5904448754
 H         -5.1849903194       -3.0834645537       -2.4133611037
 H         -4.6084296526       -3.6860004323       -0.0316973503
 H         -3.5386997030       -4.9807489867       -0.5722744645
 H         -2.9220319032       -3.7116232372        0.4898692607
 H         -1.4879992927       -2.9711266614       -2.8978855563
 H         -1.0702490134       -3.3027766391       -1.2162792361
 H         -1.7679918641       -4.5756158561       -2.2206133135
 H         -2.0497575005       -1.0090497123        2.5904551318
 H         -0.1444683658        0.0897811176        3.9280449157
 H         -0.0051101318        1.2080520939        2.5808472292
 H         -1.5151305434        2.1292429798        4.3025462706
 H         -2.5493180583        1.6768037051        2.9427914978
 H         -2.4453585066        0.6337409732        4.3477819293
 H         -0.2219554017       -2.0728331092        0.9298436934
 H         -0.4415386364       -2.7668198385        3.8774894126
 H         -1.7542161795       -3.0144248513        2.7243562336
 H         -0.3180575627       -4.5162495840        1.3727908914
 H         -0.5800681896       -5.0990434775        3.0162236138
 H          0.9634568266       -4.3826237757        2.5754124381
 H          1.3984737502       -0.9646378994        3.2553547382
 H          1.7896319507       -2.4925346171        2.4852760830
 H          6.9166369724       -0.8390667031        0.3778962184
 H          7.7190520633       -0.1089215227       -1.0228984474
 H          6.4908166303       -1.3607057370       -1.2531818052
 H          6.3830847478        1.4051091771       -2.5631351237
 H          4.6966968664        1.8098497408       -2.1893898942
 H          5.1254071999        0.1798417006       -2.7469519407
 H          7.0907553769        2.1377798986       -0.2144576986
 H          5.3970781454        2.5714385226        0.1001234708
 H          6.2464544335        1.4541866382        1.1814991643
 H         -1.0953142054        4.2281735522        0.3497489215
 H         -1.5011548242        3.0373212974        1.6248862598
 C          2.3932607159       -2.9433159982        0.0048898831
 H          2.8575071133       -3.2536276431       -0.9290410583
 H          2.7395541685       -3.6195171600        0.7890716407
 H          1.3170777224       -3.0602163559       -0.0901345470
 Br        -3.3355020525        3.1975387442       -0.0640652944
 K          2.8198123587        1.5584309869       -0.2858077573
