  81
       -107.80892481
 C         -1.2185203295       -2.6325946959        2.6600600609
 C         -0.1192185409       -1.7507479007        2.0779299477
 C         -0.3383524677       -1.4478475869        0.5891664735
 C         -1.5579694302       -0.4931380355        0.4091738917
 O         -2.6660599425       -1.3139597707        0.1152575773
 Si        -4.2671268720       -0.9846697912        0.2096373956
 C         -4.7943177961        0.4651448742       -0.9167098962
 C         -5.0036471756       -2.6559754631       -0.3899525444
 C         -4.6221935398       -3.7881740193        0.5658962112
 C         -4.4845947047       -3.0056340943       -1.7866362701
 C         -6.5274585360       -2.5558233394       -0.4448483801
 C         -4.8000339348       -0.5418250518        1.9884695127
 C         -1.4103640212        0.5177170618       -0.6851329342
 C         -1.4977634473        0.2703704954       -2.0223767161
 O         -1.3205049362        1.3973163268       -2.7391013201
 C         -1.1437830899        2.3940039912       -1.8585090710
 C         -1.1754586146        1.9252535593       -0.5772250796
 C         -1.0147467289        2.7265122829        0.6520711253
 C          3.9776639510        0.7555505148       -0.3540236892
 C          4.7002932333        1.6050935320       -1.3759227623
 C          4.7865098454       -0.0843462353        0.4738832113
 O          6.0929012985       -0.0387253872        0.0764505656
 C          7.1235163445       -0.8000387251        0.7310293724
 C          6.8490932134       -2.3043118709        0.6242059442
 C          8.4003504069       -0.4512850685       -0.0437738997
 C          7.2774871182       -0.3807304921        2.1969259322
 O          4.4282260672       -0.7808492745        1.4264388013
 C          0.9623104025       -1.0069471705       -0.1132194008
 C          1.8575818319       -2.2100509996       -0.4352187204
 C          1.4123264192       -2.9844964329       -1.6699337056
 C          1.7497719359        0.0499265431        0.6782223903
 C          2.5969447917        0.8831397346       -0.2716034084
 O          1.9417767489        1.6766826196       -1.0273857183
 H         -1.0578798055       -2.7801528730        3.7258017620
 H         -2.1935803909       -2.1781832133        2.5131588332
 H         -1.2188977125       -3.6060726622        2.1753028420
 H          0.8414440671       -2.2525292099        2.2032541847
 H         -0.0668669937       -0.8169131067        2.6414630765
 H         -0.6600893416       -2.3769750725        0.1071000602
 H         -1.7528463478        0.0343226184        1.3504360437
 H         -4.4910790445        0.3159785345       -1.9488473435
 H         -4.3527279937        1.3963657013       -0.5742486517
 H         -5.8704361444        0.6018512644       -0.9053264806
 H         -5.0167623643       -4.7390328599        0.2071931483
 H         -5.0262891502       -3.6071965103        1.5589325612
 H         -3.5419537643       -3.8690753239        0.6430740430
 H         -3.4008744521       -3.0800793623       -1.7741916879
 H         -4.7764093330       -2.2448905023       -2.5064020584
 H         -4.8942580058       -3.9608862118       -2.1150014960
 H         -6.8395418089       -1.7821740493       -1.1416237158
 H         -6.9607638954       -3.5017033849       -0.7698963163
 H         -6.9340375327       -2.3161857611        0.5345381309
 H         -5.8756912776       -0.4254423137        2.0660095915
 H         -4.3561610441        0.3993689821        2.3005231974
 H         -4.5005228098       -1.3009145984        2.7053694805
 H         -1.7281875176       -0.6394677843       -2.5455886001
 H         -1.0128189615        3.3914997126       -2.2362056053
 H         -0.4277149990        2.2121877027        1.4083479190
 H         -0.5835694541        3.7014469892        0.4391133449
 H          5.5459237830        2.1174283075       -0.9213654509
 H          4.0101293459        2.3505733982       -1.7638200177
 H          5.0896566885        0.9985779464       -2.1968817090
 H          6.7229755324       -2.5849641672       -0.4194661972
 H          5.9435189855       -2.5578293817        1.1682018950
 H          7.6833113628       -2.8583938617        1.0446033938
 H          8.5920515973        0.6165893670        0.0183521666
 H          9.2450085266       -0.9906006015        0.3737687453
 H          8.2841806720       -0.7207768230       -1.0900364940
 H          7.4450578111        0.6926381185        2.2607677877
 H          6.3769415451       -0.6258106740        2.7532155581
 H          8.1223673172       -0.9002124288        2.6398932095
 H          0.6907257306       -0.5466598834       -1.0744205088
 H          1.8822911080       -2.8843121596        0.4226523911
 H          2.8762742500       -1.8452985295       -0.5873436411
 H          1.4734383792       -2.3513207343       -2.5609961845
 H          0.3905405105       -3.3404815024       -1.5580925329
 H          2.0578809951       -3.8472296819       -1.8178011552
 H          1.0513022048        0.7377410110        1.1544717578
 H          2.3652512096       -0.4177845078        1.4389031529
 K          1.3096304433        0.7324480552       -2.8295478487
 Br        -2.7552542857        3.0908962782        1.5176094643
