  81
       -107.80825874
 C         -1.3074786242       -0.9830376248        4.2043202618
 C         -0.6225506375       -0.3321233023        3.0056327101
 C         -0.6775674599       -1.1912109739        1.7277826953
 C         -1.1794556000       -0.3140555056        0.5504712801
 O         -2.5560552665       -0.1233277979        0.7756345834
 Si        -3.5540392310        1.0508723633        0.2235077150
 C         -3.8687140351        0.8917908838       -1.6517431797
 C         -5.1413012917        0.6946325514        1.2481077495
 C         -5.5666850305       -0.7674764168        1.0988671031
 C         -6.2795077112        1.5880933900        0.7564680040
 C         -4.8999685133        0.9832642040        2.7314924361
 C         -2.8473039584        2.7882534461        0.5753234263
 C         -0.9695864725       -0.9503284177       -0.7881221005
 C         -1.5707246963       -2.0874292510       -1.2390342987
 O         -1.1439097222       -2.4057857478       -2.4761812927
 C         -0.2733039451       -1.4550333468       -2.8441193783
 C         -0.1081444314       -0.5304921239       -1.8530845656
 C          0.7837342009        0.6458558082       -1.9046474277
 C          3.6421505625       -0.5419187480       -0.5862953045
 C          4.3742431328       -1.0465807794       -1.8118057488
 C          4.1349682598        0.6812923744       -0.0404964888
 O          3.4241306151        1.1626573737        1.0222664059
 C          3.7871444270        2.3807526352        1.7046220330
 C          2.7416886269        2.5162474745        2.8188998215
 C          5.1856799597        2.2726854047        2.3208645278
 C          3.7020638891        3.5916858577        0.7687340342
 O          5.1110281433        1.2922906672       -0.4907032951
 C          0.6349906013       -1.9309888378        1.4100669202
 C          1.0338806862       -2.9459245414        2.4870166877
 C          0.1044284828       -4.1496445019        2.5853143159
 C          1.8004352019       -0.9751507328        1.1230137408
 C          2.5770049743       -1.3228275097       -0.1489528732
 O          2.2260702034       -2.3568427929       -0.8016889610
 H         -1.2801556253       -0.3081108256        5.0573281708
 H         -2.3484986754       -1.1944899228        3.9713042089
 H         -0.8214323621       -1.9110851592        4.4902759803
 H          0.4149139370       -0.1031956907        3.2517253661
 H         -1.1305729267        0.6142490481        2.8113508109
 H         -1.4633396287       -1.9432533195        1.8528460698
 H         -0.6801819320        0.6618157704        0.5630715130
 H         -4.5858173983        1.6284343984       -1.9973031452
 H         -4.2487934952       -0.0904532417       -1.9162979498
 H         -2.9529023770        1.0537999054       -2.2121071367
 H         -5.7865785610       -0.9982992240        0.0596213853
 H         -6.4614062012       -0.9645687832        1.6894952170
 H         -4.7726406778       -1.4243515662        1.4406877688
 H         -6.0140913944        2.6387426690        0.8467226936
 H         -7.1817415452        1.4147724639        1.3430275329
 H         -6.5079083822        1.3841542077       -0.2863840194
 H         -4.0736342461        0.3844922393        3.1030809612
 H         -4.6618134160        2.0330142434        2.8855280422
 H         -5.7893847570        0.7473216646        3.3159467634
 H         -2.4477540045        2.8607517651        1.5830433160
 H         -3.5991452735        3.5619771341        0.4644292682
 H         -2.0455750937        3.0256884138       -0.1176736690
 H         -2.3324895131       -2.6975552860       -0.7897752827
 H          0.1603804173       -1.5116134258       -3.8258128495
 H          1.2099372600        0.8906191685       -0.9370023557
 H          1.5825558622        0.5104265916       -2.6298111462
 H          4.7101612318       -2.0720956973       -1.6584285388
 H          5.2361630270       -0.4150561185       -2.0086081311
 H          3.7249449171       -1.0390956238       -2.6895598560
 H          2.9402117127        3.4111033736        3.4004325762
 H          2.7817261634        1.6491634559        3.4720796008
 H          1.7453727521        2.5852537574        2.3907718448
 H          5.9321558497        2.1727543913        1.5376233185
 H          5.3991930577        3.1642879775        2.9032634241
 H          5.2405186015        1.3998791656        2.9681014759
 H          2.7049272156        3.6680769956        0.3397153938
 H          3.9171666474        4.4992618069        1.3252596403
 H          4.4226352039        3.4919538145       -0.0384704850
 H          0.4606918742       -2.5085962087        0.4898108662
 H          1.0860840561       -2.4454894571        3.4549332789
 H          2.0388927701       -3.3000811719        2.2427399326
 H          0.0620818237       -4.6772417216        1.6251487188
 H         -0.9004803368       -3.8472901575        2.8683473918
 H          0.4759081448       -4.8388060724        3.3406501658
 H          1.4410630728        0.0466503667        1.0358685855
 H          2.5134627854       -0.9724085257        1.9480922923
 K          0.8235448463       -3.9039851239       -1.2504775309
 Br        -0.1698623037        2.2728101374       -2.4832900378
